1701096625.135277s 1 https://dandiarchive.s3.amazonaws.com/zarr/05de4574-3317-4ceb-a6a4-c3b673ed306e/0/0/0/11/9/20?versionId=Or008TEC.MT3D0VTwGZJnC.hZgHCob4f
1701096625.477973s 1 https://api.dandiarchive.org/api/zarr/05de4574-3317-4ceb-a6a4-c3b673ed306e/files?prefix=0%2F0%2F0%2F11%2F9%2F20&download=true
